New Load.260555a0 phases=1 Bus1=l3048962.1 kv=7.2 model=1 conn=wye kW=13.3 pf=0.97 Vminpu=.88
New Load.228580047b0 phases=1 Bus1=l3029183.2 kv=7.2 model=1 conn=wye kW=5.84 pf=0.97 Vminpu=.88
New Load.260495b0 phases=1 Bus1=l2767407.2 kv=7.2 model=1 conn=wye kW=3.89 pf=0.97 Vminpu=.88
New Load.21249647b0 phases=1 Bus1=l2955055.2 kv=7.2 model=1 conn=wye kW=9.73 pf=0.97 Vminpu=.88
New Load.2120195b0 phases=1 Bus1=l3048209.2 kv=7.2 model=1 conn=wye kW=9.73 pf=0.97 Vminpu=.88
New Load.260630b0 phases=1 Bus1=l2973833.2 kv=7.2 model=1 conn=wye kW=5.84 pf=0.97 Vminpu=.88
New Load.302367b0 phases=1 Bus1=l2766727.2 kv=7.2 model=1 conn=wye kW=5.84 pf=0.97 Vminpu=.88
New Load.2223664050b0 phases=1 Bus1=l3315860.2 kv=7.2 model=1 conn=wye kW=5.84 pf=0.97 Vminpu=.88
New Load.2224238167a0 phases=1 Bus1=l3649306.1 kv=7.2 model=1 conn=wye kW=13.3 pf=0.97 Vminpu=.88
New Load.293523a0 phases=1 Bus1=l2766729.1 kv=7.2 model=1 conn=wye kW=8.87 pf=0.97 Vminpu=.88
New Load.323266b0 phases=1 Bus1=l3197632.2 kv=7.2 model=1 conn=wye kW=5.84 pf=0.97 Vminpu=.88
New Load.21400253b0 phases=1 Bus1=l2691959.2 kv=7.2 model=1 conn=wye kW=38.9 pf=0.97 Vminpu=.88
New Load.338919a0 phases=1 Bus1=l2748127.1 kv=7.2 model=1 conn=wye kW=5.32 pf=0.97 Vminpu=.88
New Load.293609c0 phases=1 Bus1=l2785515.3 kv=7.2 model=1 conn=wye kW=10.17 pf=0.97 Vminpu=.88
New Load.21399112c0 phases=1 Bus1=l3254217.3 kv=7.2 model=1 conn=wye kW=10.17 pf=0.97 Vminpu=.88
New Load.275000c0 phases=1 Bus1=l2710509.3 kv=7.2 model=1 conn=wye kW=6.1 pf=0.97 Vminpu=.88
New Load.21382813a0 phases=1 Bus1=l2748781.1 kv=7.2 model=1 conn=wye kW=13.3 pf=0.97 Vminpu=.88
New Load.226193134c0 phases=1 Bus1=l2895449.3 kv=7.2 model=1 conn=wye kW=10.17 pf=0.97 Vminpu=.88
New Load.293592a0 phases=1 Bus1=l2973161.1 kv=7.2 model=1 conn=wye kW=13.3 pf=0.97 Vminpu=.88
New Load.323253b0 phases=1 Bus1=l2973152.2 kv=7.2 model=1 conn=wye kW=9.73 pf=0.97 Vminpu=.88
New Load.337660c0 phases=1 Bus1=l2897769.3 kv=7.2 model=1 conn=wye kW=10.17 pf=0.97 Vminpu=.88
New Load.226193298a0 phases=1 Bus1=l2820533.1 kv=7.2 model=1 conn=wye kW=8.87 pf=0.97 Vminpu=.88
New Load.260643a0 phases=1 Bus1=l2692660.1 kv=7.2 model=1 conn=wye kW=17.74 pf=0.97 Vminpu=.88
New Load.247100b0 phases=1 Bus1=l2729407.2 kv=7.2 model=1 conn=wye kW=5.84 pf=0.97 Vminpu=.88
New Load.251867c0 phases=1 Bus1=l2861157.3 kv=7.2 model=1 conn=wye kW=10.17 pf=0.97 Vminpu=.88
New Load.2129466a0 phases=3 Bus1=l3011293.1.2.3 kv=12.47 model=1 conn=wye kW=57.53 pf=0.97 Vminpu=.88
New Load.302807c0 phases=1 Bus1=l3235266.3 kv=7.2 model=1 conn=wye kW=10.17 pf=0.97 Vminpu=.88
New Load.21399361b0 phases=1 Bus1=l2691954.2 kv=7.2 model=1 conn=wye kW=9.73 pf=0.97 Vminpu=.88
New Load.227678342c0 phases=1 Bus1=l2727795.3 kv=7.2 model=1 conn=wye kW=6.1 pf=0.97 Vminpu=.88
New Load.323285b0 phases=1 Bus1=l2804269.2 kv=7.2 model=1 conn=wye kW=9.73 pf=0.97 Vminpu=.88
New Load.355598b0 phases=1 Bus1=l2804245.2 kv=7.2 model=1 conn=wye kW=9.73 pf=0.97 Vminpu=.88
New Load.321880a0 phases=1 Bus1=l2876812.1 kv=7.2 model=1 conn=wye kW=5.32 pf=0.97 Vminpu=.88
New Load.392037b0 phases=1 Bus1=l2673320.2 kv=7.2 model=1 conn=wye kW=9.73 pf=0.97 Vminpu=.88
New Load.227917122a0 phases=1 Bus1=l2915534.1 kv=7.2 model=1 conn=wye kW=13.3 pf=0.97 Vminpu=.88
New Load.274992c0 phases=1 Bus1=l2804250.3 kv=7.2 model=1 conn=wye kW=10.17 pf=0.97 Vminpu=.88
New Load.356797c0 phases=1 Bus1=l2955006.3 kv=7.2 model=1 conn=wye kW=10.17 pf=0.97 Vminpu=.88
New Load.302676a0 phases=1 Bus1=l2710519.1 kv=7.2 model=1 conn=wye kW=3.55 pf=0.97 Vminpu=.88
New Load.391979c0 phases=1 Bus1=l3197642.3 kv=7.2 model=1 conn=wye kW=6.1 pf=0.97 Vminpu=.88
New Load.227917127c0 phases=1 Bus1=l2690868.3 kv=7.2 model=1 conn=wye kW=20.34 pf=0.97 Vminpu=.88
New Load.21397645a0 phases=1 Bus1=l2860493.1 kv=7.2 model=1 conn=wye kW=8.87 pf=0.97 Vminpu=.88
New Load.21474587c0 phases=1 Bus1=l3104155.3 kv=7.2 model=1 conn=wye kW=10.17 pf=0.97 Vminpu=.88
New Load.328367c0 phases=1 Bus1=l3104830.3 kv=7.2 model=1 conn=wye kW=4.07 pf=0.97 Vminpu=.88
New Load.355936a0 phases=1 Bus1=l2954357.1 kv=7.2 model=1 conn=wye kW=13.3 pf=0.97 Vminpu=.88
New Load.138574a0 phases=1 Bus1=l2991907.1 kv=7.2 model=1 conn=wye kW=8.87 pf=0.97 Vminpu=.88
New Load.337666b0 phases=1 Bus1=l3029518.2 kv=7.2 model=1 conn=wye kW=9.73 pf=0.97 Vminpu=.88
New Load.339047a0 phases=1 Bus1=l2973148.1 kv=7.2 model=1 conn=wye kW=8.87 pf=0.97 Vminpu=.88
New Load.138796b0 phases=1 Bus1=l3236011.2 kv=7.2 model=1 conn=wye kW=5.84 pf=0.97 Vminpu=.88
New Load.323233b0 phases=1 Bus1=l3254203.2 kv=7.2 model=1 conn=wye kW=5.84 pf=0.97 Vminpu=.88
New Load.355840b0 phases=1 Bus1=l2822871.2 kv=7.2 model=1 conn=wye kW=9.73 pf=0.97 Vminpu=.88
New Load.2120786a0 phases=1 Bus1=l2841628.1 kv=7.2 model=1 conn=wye kW=8.87 pf=0.97 Vminpu=.88
New Load.337708b0 phases=1 Bus1=l3216349.2 kv=7.2 model=1 conn=wye kW=5.84 pf=0.97 Vminpu=.88
New Load.337643c0 phases=1 Bus1=l2897806.3 kv=7.2 model=1 conn=wye kW=6.1 pf=0.97 Vminpu=.88
New Load.302375b0 phases=1 Bus1=l2973162.2 kv=7.2 model=1 conn=wye kW=5.84 pf=0.97 Vminpu=.88
New Load.2212371533c0 phases=1 Bus1=l3263051.3 kv=7.2 model=1 conn=wye kW=10.17 pf=0.97 Vminpu=.88
New Load.2224387113a0 phases=1 Bus1=l3728042.1 kv=7.2 model=1 conn=wye kW=13.3 pf=0.97 Vminpu=.88
New Load.225767272a0 phases=1 Bus1=l3139103.1 kv=7.2 model=1 conn=wye kW=8.87 pf=0.97 Vminpu=.88
New Load.21396796b0 phases=1 Bus1=l3141397.2 kv=7.2 model=1 conn=wye kW=9.73 pf=0.97 Vminpu=.88
New Load.21399619c0 phases=1 Bus1=l2991943.3 kv=7.2 model=1 conn=wye kW=10.17 pf=0.97 Vminpu=.88
New Load.337630c0 phases=1 Bus1=l3085392.3 kv=7.2 model=1 conn=wye kW=6.1 pf=0.97 Vminpu=.88
New Load.260574c0 phases=1 Bus1=l3123452.3 kv=7.2 model=1 conn=wye kW=10.17 pf=0.97 Vminpu=.88
New Load.293645a0 phases=1 Bus1=l2841633.1 kv=7.2 model=1 conn=wye kW=8.87 pf=0.97 Vminpu=.88
New Load.21209868a0 phases=1 Bus1=l2710518.1 kv=7.2 model=1 conn=wye kW=8.87 pf=0.97 Vminpu=.88
New Load.355597b0 phases=1 Bus1=l2729401.2 kv=7.2 model=1 conn=wye kW=5.84 pf=0.97 Vminpu=.88
New Load.328365b0 phases=1 Bus1=l3179646.2 kv=7.2 model=1 conn=wye kW=14.59 pf=0.97 Vminpu=.88
New Load.339008b0 phases=1 Bus1=l3122835.2 kv=7.2 model=1 conn=wye kW=5.84 pf=0.97 Vminpu=.88
New Load.337688b0 phases=1 Bus1=l3029501.2 kv=7.2 model=1 conn=wye kW=5.84 pf=0.97 Vminpu=.88
New Load.138647c0 phases=1 Bus1=l3254210.3 kv=7.2 model=1 conn=wye kW=6.1 pf=0.97 Vminpu=.88
New Load.338934b0 phases=1 Bus1=l2879070.2 kv=7.2 model=1 conn=wye kW=5.84 pf=0.97 Vminpu=.88
New Load.138753b0 phases=1 Bus1=l2748130.2 kv=7.2 model=1 conn=wye kW=9.73 pf=0.97 Vminpu=.88
New Load.225869139a0 phases=1 Bus1=l3120503.1 kv=7.2 model=1 conn=wye kW=5.32 pf=0.97 Vminpu=.88
New Load.260463b0 phases=1 Bus1=l3086075.2 kv=7.2 model=1 conn=wye kW=5.84 pf=0.97 Vminpu=.88
New Load.356804a0 phases=1 Bus1=l2823544.1 kv=7.2 model=1 conn=wye kW=8.87 pf=0.97 Vminpu=.88
New Load.218474a0 phases=1 Bus1=l3217056.1 kv=7.2 model=1 conn=wye kW=17.74 pf=0.97 Vminpu=.88
New Load.226159329a0 phases=1 Bus1=l3082993.1 kv=7.2 model=1 conn=wye kW=8.87 pf=0.97 Vminpu=.88
New Load.21400185a0 phases=1 Bus1=l2935559.1 kv=7.2 model=1 conn=wye kW=8.87 pf=0.97 Vminpu=.88
New Load.355933a0 phases=1 Bus1=l2916598.1 kv=7.2 model=1 conn=wye kW=3.55 pf=0.97 Vminpu=.88
New Load.260488a0 phases=1 Bus1=l2842379.1 kv=7.2 model=1 conn=wye kW=13.3 pf=0.97 Vminpu=.88
New Load.294845a0 phases=1 Bus1=l3010563.1 kv=7.2 model=1 conn=wye kW=5.32 pf=0.97 Vminpu=.88
New Load.260650a0 phases=1 Bus1=l2692661.1 kv=7.2 model=1 conn=wye kW=8.87 pf=0.97 Vminpu=.88
New Load.225533215c0 phases=1 Bus1=l3097861.3 kv=7.2 model=1 conn=wye kW=4.07 pf=0.97 Vminpu=.88
New Load.323234b0 phases=1 Bus1=l2860480.2 kv=7.2 model=1 conn=wye kW=9.73 pf=0.97 Vminpu=.88
New Load.218472a0 phases=1 Bus1=l2936270.1 kv=7.2 model=1 conn=wye kW=8.87 pf=0.97 Vminpu=.88
New Load.226193702c0 phases=1 Bus1=l3181545.3 kv=7.2 model=1 conn=wye kW=6.1 pf=0.97 Vminpu=.88
New Load.227902981a0 phases=1 Bus1=l3047058.1 kv=7.2 model=1 conn=wye kW=13.3 pf=0.97 Vminpu=.88
New Load.21397304a0 phases=1 Bus1=l2973169.1 kv=7.2 model=1 conn=wye kW=5.32 pf=0.97 Vminpu=.88
New Load.321856b0 phases=1 Bus1=l2860506.2 kv=7.2 model=1 conn=wye kW=5.84 pf=0.97 Vminpu=.88
New Load.323264b0 phases=1 Bus1=l3216344.2 kv=7.2 model=1 conn=wye kW=19.45 pf=0.97 Vminpu=.88
New Load.391987a0 phases=1 Bus1=l3122822.1 kv=7.2 model=1 conn=wye kW=8.87 pf=0.97 Vminpu=.88
New Load.293681a0 phases=1 Bus1=l3195751.1 kv=7.2 model=1 conn=wye kW=8.87 pf=0.97 Vminpu=.88
New Load.337692b0 phases=1 Bus1=l2879061.2 kv=7.2 model=1 conn=wye kW=3.89 pf=0.97 Vminpu=.88
New Load.247060a0 phases=1 Bus1=l2991906.1 kv=7.2 model=1 conn=wye kW=3.55 pf=0.97 Vminpu=.88
New Load.337654c0 phases=1 Bus1=l3066808.3 kv=7.2 model=1 conn=wye kW=6.1 pf=0.97 Vminpu=.88
New Load.138262a0 phases=1 Bus1=l3029502.1 kv=7.2 model=1 conn=wye kW=17.74 pf=0.97 Vminpu=.88
New Load.391765b0 phases=1 Bus1=l3085389.2 kv=7.2 model=1 conn=wye kW=9.73 pf=0.97 Vminpu=.88
New Load.338941c0 phases=1 Bus1=l2991914.3 kv=7.2 model=1 conn=wye kW=6.1 pf=0.97 Vminpu=.88
New Load.227731863a0 phases=1 Bus1=l3177665.1 kv=7.2 model=1 conn=wye kW=13.3 pf=0.97 Vminpu=.88
New Load.138258c0 phases=1 Bus1=l2991911.3 kv=7.2 model=1 conn=wye kW=6.1 pf=0.97 Vminpu=.88
New Load.21459651c0 phases=1 Bus1=l2763812.3 kv=7.2 model=1 conn=wye kW=30.52 pf=0.97 Vminpu=.88
New Load.2147974b0 phases=1 Bus1=l2691946.2 kv=7.2 model=1 conn=wye kW=5.84 pf=0.97 Vminpu=.88
New Load.355599b0 phases=1 Bus1=l3216338.2 kv=7.2 model=1 conn=wye kW=9.73 pf=0.97 Vminpu=.88
New Load.337626c0 phases=1 Bus1=l3216343.3 kv=7.2 model=1 conn=wye kW=10.17 pf=0.97 Vminpu=.88
New Load.251859c0 phases=1 Bus1=l2952007.3 kv=7.2 model=1 conn=wye kW=10.17 pf=0.97 Vminpu=.88
New Load.337627c0 phases=1 Bus1=l3085393.3 kv=7.2 model=1 conn=wye kW=10.17 pf=0.97 Vminpu=.88
New Load.391751b0 phases=1 Bus1=l2860488.2 kv=7.2 model=1 conn=wye kW=9.73 pf=0.97 Vminpu=.88
New Load.275248b0 phases=1 Bus1=l2805036.2 kv=7.2 model=1 conn=wye kW=3.89 pf=0.97 Vminpu=.88
New Load.2118822a0 phases=1 Bus1=l2991920.1 kv=7.2 model=1 conn=wye kW=5.32 pf=0.97 Vminpu=.88
New Load.21398815a0 phases=1 Bus1=l3216351.1 kv=7.2 model=1 conn=wye kW=8.87 pf=0.97 Vminpu=.88
New Load.337716a0 phases=1 Bus1=l2841627.1 kv=7.2 model=1 conn=wye kW=5.32 pf=0.97 Vminpu=.88
New Load.356009a0 phases=1 Bus1=l2691936.1 kv=7.2 model=1 conn=wye kW=5.32 pf=0.97 Vminpu=.88
New Load.226193745b0 phases=1 Bus1=l2876798.2 kv=7.2 model=1 conn=wye kW=9.73 pf=0.97 Vminpu=.88
New Load.228314460c0 phases=1 Bus1=l3253570.3 kv=7.2 model=1 conn=wye kW=10.17 pf=0.97 Vminpu=.88
New Load.355606b0 phases=1 Bus1=l3029510.2 kv=7.2 model=1 conn=wye kW=5.84 pf=0.97 Vminpu=.88
New Load.260500b0 phases=1 Bus1=l2711224.2 kv=7.2 model=1 conn=wye kW=3.89 pf=0.97 Vminpu=.88
New Load.356013a0 phases=1 Bus1=l2954348.1 kv=7.2 model=1 conn=wye kW=8.87 pf=0.97 Vminpu=.88
New Load.293424c0 phases=1 Bus1=l2766750.3 kv=7.2 model=1 conn=wye kW=15.26 pf=0.97 Vminpu=.88
New Load.21381118b0 phases=1 Bus1=l2710530.2 kv=7.2 model=1 conn=wye kW=5.84 pf=0.97 Vminpu=.88
New Load.227921427a0 phases=3 Bus1=l2915542.1.2.3 kv=12.47 model=1 conn=wye kW=57.53 pf=0.97 Vminpu=.88
New Load.391977a0 phases=1 Bus1=l3216350.1 kv=7.2 model=1 conn=wye kW=8.87 pf=0.97 Vminpu=.88
New Load.338970a0 phases=1 Bus1=l3141401.1 kv=7.2 model=1 conn=wye kW=8.87 pf=0.97 Vminpu=.88
New Load.2224386842a0 phases=1 Bus1=l3727709.1 kv=7.2 model=1 conn=wye kW=13.3 pf=0.97 Vminpu=.88
New Load.337717a0 phases=1 Bus1=l3216348.1 kv=7.2 model=1 conn=wye kW=5.32 pf=0.97 Vminpu=.88
New Load.2127253a0 phases=1 Bus1=l3085401.1 kv=7.2 model=1 conn=wye kW=13.3 pf=0.97 Vminpu=.88
New Load.2127390c0 phases=1 Bus1=l2860486.3 kv=7.2 model=1 conn=wye kW=6.1 pf=0.97 Vminpu=.88
New Load.338986a0 phases=1 Bus1=l2785538.1 kv=7.2 model=1 conn=wye kW=8.87 pf=0.97 Vminpu=.88
New Load.302412a0 phases=1 Bus1=l3048210.1 kv=7.2 model=1 conn=wye kW=13.3 pf=0.97 Vminpu=.88
New Load.2224237718a0 phases=1 Bus1=l3649305.1 kv=7.2 model=1 conn=wye kW=5.32 pf=0.97 Vminpu=.88
New Load.293487b0 phases=1 Bus1=l3254238.2 kv=7.2 model=1 conn=wye kW=9.73 pf=0.97 Vminpu=.88
New Load.293673a0 phases=1 Bus1=l3122827.1 kv=7.2 model=1 conn=wye kW=8.87 pf=0.97 Vminpu=.88
New Load.302734a0 phases=1 Bus1=l2991922.1 kv=7.2 model=1 conn=wye kW=5.32 pf=0.97 Vminpu=.88
New Load.338976b0 phases=1 Bus1=l2691967.2 kv=7.2 model=1 conn=wye kW=5.84 pf=0.97 Vminpu=.88
New Load.21380156b0 phases=1 Bus1=l2841641.2 kv=7.2 model=1 conn=wye kW=5.84 pf=0.97 Vminpu=.88
New Load.260590b0 phases=1 Bus1=l3216988.2 kv=7.2 model=1 conn=wye kW=9.73 pf=0.97 Vminpu=.88
New Load.260577c0 phases=1 Bus1=l2767341.3 kv=7.2 model=1 conn=wye kW=15.26 pf=0.97 Vminpu=.88
New Load.330121b0 phases=1 Bus1=l3142078.2 kv=7.2 model=1 conn=wye kW=3.89 pf=0.97 Vminpu=.88
New Load.441854c0 phases=1 Bus1=l2935566.3 kv=7.2 model=1 conn=wye kW=10.17 pf=0.97 Vminpu=.88
New Load.356808a0 phases=1 Bus1=l3101782.1 kv=7.2 model=1 conn=wye kW=13.3 pf=0.97 Vminpu=.88
New Load.21385192c0 phases=1 Bus1=l2879062.3 kv=7.2 model=1 conn=wye kW=6.1 pf=0.97 Vminpu=.88
New Load.21148701b0 phases=1 Bus1=l2897771.2 kv=7.2 model=1 conn=wye kW=5.84 pf=0.97 Vminpu=.88
New Load.260515a0 phases=1 Bus1=l3160865.1 kv=7.2 model=1 conn=wye kW=8.87 pf=0.97 Vminpu=.88
New Load.2119958b0 phases=1 Bus1=l2935568.2 kv=7.2 model=1 conn=wye kW=5.84 pf=0.97 Vminpu=.88
New Load.338968c0 phases=1 Bus1=l3178979.3 kv=7.2 model=1 conn=wye kW=15.26 pf=0.97 Vminpu=.88
New Load.138346c0 phases=1 Bus1=l2916609.3 kv=7.2 model=1 conn=wye kW=6.1 pf=0.97 Vminpu=.88
New Load.337691b0 phases=1 Bus1=l2897774.2 kv=7.2 model=1 conn=wye kW=5.84 pf=0.97 Vminpu=.88
New Load.293655a0 phases=3 Bus1=l2729414.1.2.3 kv=12.47 model=1 conn=wye kW=28.770000000000003 pf=0.97 Vminpu=.88
New Load.21470405a0 phases=1 Bus1=l2897801.1 kv=7.2 model=1 conn=wye kW=13.3 pf=0.97 Vminpu=.88
New Load.21469960b0 phases=1 Bus1=l3066830.2 kv=7.2 model=1 conn=wye kW=9.73 pf=0.97 Vminpu=.88
New Load.293665c0 phases=1 Bus1=l2973166.3 kv=7.2 model=1 conn=wye kW=10.17 pf=0.97 Vminpu=.88
New Load.138573a0 phases=1 Bus1=l3235253.1 kv=7.2 model=1 conn=wye kW=8.87 pf=0.97 Vminpu=.88
New Load.260620c0 phases=1 Bus1=l3067506.3 kv=7.2 model=1 conn=wye kW=4.07 pf=0.97 Vminpu=.88
New Load.302808c0 phases=1 Bus1=l2841626.3 kv=7.2 model=1 conn=wye kW=4.07 pf=0.97 Vminpu=.88
New Load.226193899b0 phases=1 Bus1=l3082983.2 kv=7.2 model=1 conn=wye kW=9.73 pf=0.97 Vminpu=.88
New Load.251857c0 phases=1 Bus1=l3064514.3 kv=7.2 model=1 conn=wye kW=6.1 pf=0.97 Vminpu=.88
New Load.251856c0 phases=1 Bus1=l3048888.3 kv=7.2 model=1 conn=wye kW=6.1 pf=0.97 Vminpu=.88
New Load.337669a0 phases=1 Bus1=l3122811.1 kv=7.2 model=1 conn=wye kW=8.87 pf=0.97 Vminpu=.88
New Load.355773a0 phases=1 Bus1=l2991909.1 kv=7.2 model=1 conn=wye kW=8.87 pf=0.97 Vminpu=.88
New Load.338998b0 phases=1 Bus1=l3254229.2 kv=7.2 model=1 conn=wye kW=9.73 pf=0.97 Vminpu=.88
New Load.138771a0 phases=1 Bus1=l3197644.1 kv=7.2 model=1 conn=wye kW=5.32 pf=0.97 Vminpu=.88
New Load.21386754a0 phases=1 Bus1=l2766741.1 kv=7.2 model=1 conn=wye kW=8.87 pf=0.97 Vminpu=.88
New Load.2147899c0 phases=1 Bus1=l3160793.3 kv=7.2 model=1 conn=wye kW=6.1 pf=0.97 Vminpu=.88
New Load.337655c0 phases=1 Bus1=l3141396.3 kv=7.2 model=1 conn=wye kW=6.1 pf=0.97 Vminpu=.88
New Load.138569a0 phases=1 Bus1=l2973151.1 kv=7.2 model=1 conn=wye kW=5.32 pf=0.97 Vminpu=.88
New Load.337646b0 phases=1 Bus1=l2879063.2 kv=7.2 model=1 conn=wye kW=9.73 pf=0.97 Vminpu=.88
New Load.356795c0 phases=1 Bus1=l2842330.3 kv=7.2 model=1 conn=wye kW=10.17 pf=0.97 Vminpu=.88
New Load.260624c0 phases=1 Bus1=l3048946.3 kv=7.2 model=1 conn=wye kW=6.1 pf=0.97 Vminpu=.88
New Load.338917a0 phases=1 Bus1=l2935555.1 kv=7.2 model=1 conn=wye kW=5.32 pf=0.97 Vminpu=.88
New Load.247058a0 phases=1 Bus1=l2673315.1 kv=7.2 model=1 conn=wye kW=3.55 pf=0.97 Vminpu=.88
New Load.260520b0 phases=1 Bus1=l3254915.2 kv=7.2 model=1 conn=wye kW=1.95 pf=0.97 Vminpu=.88
New Load.302678a0 phases=1 Bus1=l3029499.1 kv=7.2 model=1 conn=wye kW=3.55 pf=0.97 Vminpu=.88
New Load.391750b0 phases=1 Bus1=l2897764.2 kv=7.2 model=1 conn=wye kW=9.73 pf=0.97 Vminpu=.88
New Load.226010605c0 phases=1 Bus1=l2764411.3 kv=7.2 model=1 conn=wye kW=6.1 pf=0.97 Vminpu=.88
New Load.21399707a0 phases=1 Bus1=l3141403.1 kv=7.2 model=1 conn=wye kW=8.87 pf=0.97 Vminpu=.88
New Load.21397029a0 phases=1 Bus1=l2673311.1 kv=7.2 model=1 conn=wye kW=8.87 pf=0.97 Vminpu=.88
New Load.260505c0 phases=1 Bus1=l2861218.3 kv=7.2 model=1 conn=wye kW=10.17 pf=0.97 Vminpu=.88
New Load.274987c0 phases=1 Bus1=l2916605.3 kv=7.2 model=1 conn=wye kW=6.1 pf=0.97 Vminpu=.88
New Load.226191779c0 phases=1 Bus1=l2745799.3 kv=7.2 model=1 conn=wye kW=10.17 pf=0.97 Vminpu=.88
New Load.225533237b0 phases=1 Bus1=l2798067.2 kv=7.2 model=1 conn=wye kW=3.89 pf=0.97 Vminpu=.88
New Load.260481c0 phases=1 Bus1=l2730163.3 kv=7.2 model=1 conn=wye kW=10.17 pf=0.97 Vminpu=.88
New Load.293521a0 phases=3 Bus1=l3216370.1.2.3 kv=12.47 model=1 conn=wye kW=11.51 pf=0.97 Vminpu=.88
New Load.21249626b0 phases=1 Bus1=l3142079.2 kv=7.2 model=1 conn=wye kW=5.84 pf=0.97 Vminpu=.88
New Load.293423b0 phases=1 Bus1=l3122849.2 kv=7.2 model=1 conn=wye kW=5.84 pf=0.97 Vminpu=.88
New Load.339013b0 phases=1 Bus1=l2804270.2 kv=7.2 model=1 conn=wye kW=5.84 pf=0.97 Vminpu=.88
New Load.260589b0 phases=1 Bus1=l2955005.2 kv=7.2 model=1 conn=wye kW=5.84 pf=0.97 Vminpu=.88
New Load.2128464c0 phases=1 Bus1=l3048889.3 kv=7.2 model=1 conn=wye kW=10.17 pf=0.97 Vminpu=.88
New Load.441311a0 phases=1 Bus1=l2766720.1 kv=7.2 model=1 conn=wye kW=8.87 pf=0.97 Vminpu=.88
New Load.21396867a0 phases=1 Bus1=l2710536.1 kv=7.2 model=1 conn=wye kW=8.87 pf=0.97 Vminpu=.88
New Load.157716b0 phases=1 Bus1=l3179674.2 kv=7.2 model=1 conn=wye kW=9.73 pf=0.97 Vminpu=.88
New Load.260562a0 phases=1 Bus1=l3251799.1 kv=7.2 model=1 conn=wye kW=13.3 pf=0.97 Vminpu=.88
New Load.321854b0 phases=1 Bus1=l2804257.2 kv=7.2 model=1 conn=wye kW=5.84 pf=0.97 Vminpu=.88
New Load.227734175b0 phases=1 Bus1=l3102793.2 kv=7.2 model=1 conn=wye kW=9.73 pf=0.97 Vminpu=.88
New Load.323241b0 phases=1 Bus1=l2710508.2 kv=7.2 model=1 conn=wye kW=5.84 pf=0.97 Vminpu=.88
New Load.337720a0 phases=1 Bus1=l2841648.1 kv=7.2 model=1 conn=wye kW=5.32 pf=0.97 Vminpu=.88
New Load.321884c0 phases=1 Bus1=l2710515.3 kv=7.2 model=1 conn=wye kW=15.26 pf=0.97 Vminpu=.88
New Load.323388b0 phases=1 Bus1=l3234185.2 kv=7.2 model=1 conn=wye kW=9.73 pf=0.97 Vminpu=.88
New Load.355593b0 phases=1 Bus1=l2766715.2 kv=7.2 model=1 conn=wye kW=5.84 pf=0.97 Vminpu=.88
New Load.321855b0 phases=1 Bus1=l2860485.2 kv=7.2 model=1 conn=wye kW=5.84 pf=0.97 Vminpu=.88
New Load.226964880a0 phases=1 Bus1=l3172805.1 kv=7.2 model=1 conn=wye kW=8.87 pf=0.97 Vminpu=.88
New Load.227411655c0 phases=1 Bus1=l2806553.3 kv=7.2 model=1 conn=wye kW=10.17 pf=0.97 Vminpu=.88
New Load.337648b0 phases=1 Bus1=l3216367.2 kv=7.2 model=1 conn=wye kW=9.73 pf=0.97 Vminpu=.88
New Load.226191951b0 phases=1 Bus1=l2801895.2 kv=7.2 model=1 conn=wye kW=9.73 pf=0.97 Vminpu=.88
New Load.339002b0 phases=1 Bus1=l2785536.2 kv=7.2 model=1 conn=wye kW=5.84 pf=0.97 Vminpu=.88
New Load.391756b0 phases=1 Bus1=l2879079.2 kv=7.2 model=1 conn=wye kW=5.84 pf=0.97 Vminpu=.88
New Load.225806974a0 phases=1 Bus1=l2876814.1 kv=7.2 model=1 conn=wye kW=3.55 pf=0.97 Vminpu=.88
New Load.339017c0 phases=1 Bus1=l2729423.3 kv=7.2 model=1 conn=wye kW=6.1 pf=0.97 Vminpu=.88
New Load.138259c0 phases=1 Bus1=l2973158.3 kv=7.2 model=1 conn=wye kW=6.1 pf=0.97 Vminpu=.88
New Load.223662c0 phases=1 Bus1=l2786204.3 kv=7.2 model=1 conn=wye kW=15.26 pf=0.97 Vminpu=.88
New Load.321848b0 phases=1 Bus1=l3085390.2 kv=7.2 model=1 conn=wye kW=5.84 pf=0.97 Vminpu=.88
New Load.226195153b0 phases=1 Bus1=l3082988.2 kv=7.2 model=1 conn=wye kW=5.84 pf=0.97 Vminpu=.88
New Load.21391242b0 phases=1 Bus1=l2767409.2 kv=7.2 model=1 conn=wye kW=9.73 pf=0.97 Vminpu=.88
New Load.226192175c0 phases=1 Bus1=l3214055.3 kv=7.2 model=1 conn=wye kW=6.1 pf=0.97 Vminpu=.88
New Load.2224387074a0 phases=1 Bus1=l3728041.1 kv=7.2 model=1 conn=wye kW=8.87 pf=0.97 Vminpu=.88
New Load.325474b0 phases=1 Bus1=l3254228.2 kv=7.2 model=1 conn=wye kW=9.73 pf=0.97 Vminpu=.88
New Load.138642a0 phases=1 Bus1=l3235256.1 kv=7.2 model=1 conn=wye kW=5.32 pf=0.97 Vminpu=.88
New Load.337625c0 phases=1 Bus1=l3197627.3 kv=7.2 model=1 conn=wye kW=10.17 pf=0.97 Vminpu=.88
New Load.138680a0 phases=1 Bus1=l2710521.1 kv=7.2 model=1 conn=wye kW=8.87 pf=0.97 Vminpu=.88
New Load.391989a0 phases=1 Bus1=l2766747.1 kv=7.2 model=1 conn=wye kW=8.87 pf=0.97 Vminpu=.88
New Load.260514c0 phases=1 Bus1=l2674047.3 kv=7.2 model=1 conn=wye kW=6.1 pf=0.97 Vminpu=.88
New Load.338966c0 phases=1 Bus1=l3029505.3 kv=7.2 model=1 conn=wye kW=10.17 pf=0.97 Vminpu=.88
New Load.260464a0 phases=1 Bus1=l2730187.1 kv=7.2 model=1 conn=wye kW=13.3 pf=0.97 Vminpu=.88
New Load.138570a0 phases=1 Bus1=l2748146.1 kv=7.2 model=1 conn=wye kW=5.32 pf=0.97 Vminpu=.88
New Load.2148580b0 phases=1 Bus1=l3197636.2 kv=7.2 model=1 conn=wye kW=9.73 pf=0.97 Vminpu=.88
New Load.337709b0 phases=1 Bus1=l2879077.2 kv=7.2 model=1 conn=wye kW=5.84 pf=0.97 Vminpu=.88
New Load.338950b0 phases=1 Bus1=l2822872.2 kv=7.2 model=1 conn=wye kW=9.73 pf=0.97 Vminpu=.88
New Load.302514a0 phases=1 Bus1=l2973164.1 kv=7.2 model=1 conn=wye kW=3.55 pf=0.97 Vminpu=.88
New Load.337665b0 phases=1 Bus1=l2973178.2 kv=7.2 model=1 conn=wye kW=5.84 pf=0.97 Vminpu=.88
New Load.339052c0 phases=1 Bus1=l3118855.3 kv=7.2 model=1 conn=wye kW=15.26 pf=0.97 Vminpu=.88
New Load.338962c0 phases=1 Bus1=l2748125.3 kv=7.2 model=1 conn=wye kW=10.17 pf=0.97 Vminpu=.88
New Load.247185b0 phases=1 Bus1=l3179678.2 kv=7.2 model=1 conn=wye kW=5.84 pf=0.97 Vminpu=.88
New Load.337693b0 phases=1 Bus1=l3066813.2 kv=7.2 model=1 conn=wye kW=5.84 pf=0.97 Vminpu=.88
New Load.338981b0 phases=1 Bus1=l2820535.2 kv=7.2 model=1 conn=wye kW=9.73 pf=0.97 Vminpu=.88
New Load.338988a0 phases=1 Bus1=l3254231.1 kv=7.2 model=1 conn=wye kW=3.55 pf=0.97 Vminpu=.88
New Load.226192492b0 phases=1 Bus1=l3008232.2 kv=7.2 model=1 conn=wye kW=3.89 pf=0.97 Vminpu=.88
New Load.339007b0 phases=1 Bus1=l2916617.2 kv=7.2 model=1 conn=wye kW=9.73 pf=0.97 Vminpu=.88
New Load.323254b0 phases=1 Bus1=l2879068.2 kv=7.2 model=1 conn=wye kW=9.73 pf=0.97 Vminpu=.88
New Load.21459629c0 phases=1 Bus1=l2763811.3 kv=7.2 model=1 conn=wye kW=30.52 pf=0.97 Vminpu=.88
New Load.310560a0 phases=1 Bus1=l2879074.1 kv=7.2 model=1 conn=wye kW=5.32 pf=0.97 Vminpu=.88
New Load.337710b0 phases=1 Bus1=l2991916.2 kv=7.2 model=1 conn=wye kW=9.73 pf=0.97 Vminpu=.88
New Load.356798c0 phases=1 Bus1=l2692600.3 kv=7.2 model=1 conn=wye kW=10.17 pf=0.97 Vminpu=.88
New Load.260621c0 phases=1 Bus1=l2898515.3 kv=7.2 model=1 conn=wye kW=10.17 pf=0.97 Vminpu=.88
New Load.2224192013a0 phases=1 Bus1=l3632979.1 kv=7.2 model=1 conn=wye kW=5.32 pf=0.97 Vminpu=.88
New Load.302735a0 phases=1 Bus1=l2991923.1 kv=7.2 model=1 conn=wye kW=8.87 pf=0.97 Vminpu=.88
New Load.293471a0 phases=3 Bus1=293471.1.2.3 kv=12.47 model=1 conn=wye kW=28.770000000000003 pf=0.97 Vminpu=.88
New Load.323265b0 phases=1 Bus1=l2860501.2 kv=7.2 model=1 conn=wye kW=9.73 pf=0.97 Vminpu=.88
New Load.138343c0 phases=1 Bus1=l3010565.3 kv=7.2 model=1 conn=wye kW=4.07 pf=0.97 Vminpu=.88
New Load.338937c0 phases=1 Bus1=l2897777.3 kv=7.2 model=1 conn=wye kW=10.17 pf=0.97 Vminpu=.88
New Load.138373c0 phases=1 Bus1=l3029503.3 kv=7.2 model=1 conn=wye kW=6.1 pf=0.97 Vminpu=.88
New Load.338930b0 phases=1 Bus1=l3029506.2 kv=7.2 model=1 conn=wye kW=3.89 pf=0.97 Vminpu=.88
New Load.260529c0 phases=1 Bus1=l3217053.3 kv=7.2 model=1 conn=wye kW=4.07 pf=0.97 Vminpu=.88
New Load.337729a0 phases=3 Bus1=l2728247.1.2.3 kv=12.47 model=1 conn=wye kW=17.35 pf=0.97 Vminpu=.88
New Load.21380616a0 phases=1 Bus1=l2879067.1 kv=7.2 model=1 conn=wye kW=8.87 pf=0.97 Vminpu=.88
New Load.251828b0 phases=1 Bus1=l3179650.2 kv=7.2 model=1 conn=wye kW=5.84 pf=0.97 Vminpu=.88
New Load.260581c0 phases=1 Bus1=l3254870.3 kv=7.2 model=1 conn=wye kW=10.17 pf=0.97 Vminpu=.88
New Load.21357901b0 phases=1 Bus1=l3160117.2 kv=7.2 model=1 conn=wye kW=9.73 pf=0.97 Vminpu=.88
New Load.21373784a0 phases=1 Bus1=l3066817.1 kv=7.2 model=1 conn=wye kW=17.74 pf=0.97 Vminpu=.88
New Load.391985a0 phases=1 Bus1=l2785530.1 kv=7.2 model=1 conn=wye kW=3.55 pf=0.97 Vminpu=.88
New Load.323243b0 phases=1 Bus1=l2897765.2 kv=7.2 model=1 conn=wye kW=5.84 pf=0.97 Vminpu=.88
New Load.323387b0 phases=1 Bus1=l2690941.2 kv=7.2 model=1 conn=wye kW=9.73 pf=0.97 Vminpu=.88
New Load.260487a0 phases=1 Bus1=l2692654.1 kv=7.2 model=1 conn=wye kW=5.32 pf=0.97 Vminpu=.88
New Load.356790c0 phases=1 Bus1=l2804957.3 kv=7.2 model=1 conn=wye kW=4.07 pf=0.97 Vminpu=.88
New Load.356809a0 phases=1 Bus1=l2936214.1 kv=7.2 model=1 conn=wye kW=8.87 pf=0.97 Vminpu=.88
New Load.339006b0 phases=1 Bus1=l2916619.2 kv=7.2 model=1 conn=wye kW=9.73 pf=0.97 Vminpu=.88
New Load.2224386815a0 phases=1 Bus1=l3727708.1 kv=7.2 model=1 conn=wye kW=5.32 pf=0.97 Vminpu=.88
New Load.338933b0 phases=1 Bus1=l3216345.2 kv=7.2 model=1 conn=wye kW=14.59 pf=0.97 Vminpu=.88
New Load.302813c0 phases=1 Bus1=l3010567.3 kv=7.2 model=1 conn=wye kW=6.1 pf=0.97 Vminpu=.88
New Load.337633c0 phases=1 Bus1=l2729406.3 kv=7.2 model=1 conn=wye kW=6.1 pf=0.97 Vminpu=.88
New Load.21380500c0 phases=1 Bus1=l3235242.3 kv=7.2 model=1 conn=wye kW=10.17 pf=0.97 Vminpu=.88
New Load.21458756c0 phases=1 Bus1=l3232301.3 kv=7.2 model=1 conn=wye kW=30.52 pf=0.97 Vminpu=.88
New Load.247061a0 phases=1 Bus1=l2879054.1 kv=7.2 model=1 conn=wye kW=8.87 pf=0.97 Vminpu=.88
New Load.2128007c0 phases=1 Bus1=l2897766.3 kv=7.2 model=1 conn=wye kW=10.17 pf=0.97 Vminpu=.88
New Load.323400b0 phases=1 Bus1=l2691943.2 kv=7.2 model=1 conn=wye kW=5.84 pf=0.97 Vminpu=.88
New Load.2118808a0 phases=1 Bus1=l3122825.1 kv=7.2 model=1 conn=wye kW=13.3 pf=0.97 Vminpu=.88
New Load.21395962a0 phases=1 Bus1=l3197645.1 kv=7.2 model=1 conn=wye kW=8.87 pf=0.97 Vminpu=.88
New Load.323287b0 phases=1 Bus1=l2897789.2 kv=7.2 model=1 conn=wye kW=5.84 pf=0.97 Vminpu=.88
New Load.302370b0 phases=1 Bus1=l3122823.2 kv=7.2 model=1 conn=wye kW=9.73 pf=0.97 Vminpu=.88
New Load.338899c0 phases=1 Bus1=l3122814.3 kv=7.2 model=1 conn=wye kW=6.1 pf=0.97 Vminpu=.88
New Load.355937a0 phases=1 Bus1=l2841639.1 kv=7.2 model=1 conn=wye kW=8.87 pf=0.97 Vminpu=.88
New Load.356787c0 phases=1 Bus1=l2970804.3 kv=7.2 model=1 conn=wye kW=10.17 pf=0.97 Vminpu=.88
New Load.442373c0 phases=1 Bus1=l3141393.3 kv=7.2 model=1 conn=wye kW=10.17 pf=0.97 Vminpu=.88
New Load.260632a0 phases=1 Bus1=l2917333.1 kv=7.2 model=1 conn=wye kW=8.87 pf=0.97 Vminpu=.88
New Load.226311345b0 phases=1 Bus1=l3139598.2 kv=7.2 model=1 conn=wye kW=14.59 pf=0.97 Vminpu=.88
New Load.223658a0 phases=1 Bus1=l2823592.1 kv=7.2 model=1 conn=wye kW=1.77 pf=0.97 Vminpu=.88
New Load.226194419c0 phases=1 Bus1=l3214071.3 kv=7.2 model=1 conn=wye kW=10.17 pf=0.97 Vminpu=.88
New Load.225533703c0 phases=1 Bus1=l2925506.3 kv=7.2 model=1 conn=wye kW=10.17 pf=0.97 Vminpu=.88
New Load.247184c0 phases=1 Bus1=l2936279.3 kv=7.2 model=1 conn=wye kW=10.17 pf=0.97 Vminpu=.88
New Load.338993b0 phases=1 Bus1=l2804272.2 kv=7.2 model=1 conn=wye kW=5.84 pf=0.97 Vminpu=.88
New Load.260479a0 phases=1 Bus1=l2955074.1 kv=7.2 model=1 conn=wye kW=13.3 pf=0.97 Vminpu=.88
New Load.356788c0 phases=1 Bus1=l3176661.3 kv=7.2 model=1 conn=wye kW=4.07 pf=0.97 Vminpu=.88
New Load.21236413b0 phases=1 Bus1=l3085391.2 kv=7.2 model=1 conn=wye kW=19.45 pf=0.97 Vminpu=.88
New Load.138651c0 phases=1 Bus1=l3197628.3 kv=7.2 model=1 conn=wye kW=10.17 pf=0.97 Vminpu=.88
New Load.337668b0 phases=1 Bus1=l2935549.2 kv=7.2 model=1 conn=wye kW=14.59 pf=0.97 Vminpu=.88
New Load.21455388c0 phases=1 Bus1=l2879089.3 kv=7.2 model=1 conn=wye kW=15.26 pf=0.97 Vminpu=.88
New Load.260518c0 phases=1 Bus1=l3104853.3 kv=7.2 model=1 conn=wye kW=10.17 pf=0.97 Vminpu=.88
New Load.337694b0 phases=1 Bus1=l2991910.2 kv=7.2 model=1 conn=wye kW=5.84 pf=0.97 Vminpu=.88
New Load.321838a0 phases=1 Bus1=l2691944.1 kv=7.2 model=1 conn=wye kW=8.87 pf=0.97 Vminpu=.88
New Load.2224386863a0 phases=1 Bus1=l3727710.1 kv=7.2 model=1 conn=wye kW=13.3 pf=0.97 Vminpu=.88
New Load.302862c0 phases=1 Bus1=l3085399.3 kv=7.2 model=1 conn=wye kW=6.1 pf=0.97 Vminpu=.88
New Load.21382992a0 phases=1 Bus1=l3197654.1 kv=7.2 model=1 conn=wye kW=8.87 pf=0.97 Vminpu=.88
New Load.21398563a0 phases=1 Bus1=l3254216.1 kv=7.2 model=1 conn=wye kW=8.87 pf=0.97 Vminpu=.88
New Load.338982b0 phases=1 Bus1=l2785534.2 kv=7.2 model=1 conn=wye kW=9.73 pf=0.97 Vminpu=.88
New Load.260602b0 phases=1 Bus1=l2989566.2 kv=7.2 model=1 conn=wye kW=5.84 pf=0.97 Vminpu=.88
New Load.226024307b0 phases=1 Bus1=l3119793.2 kv=7.2 model=1 conn=wye kW=5.84 pf=0.97 Vminpu=.88
New Load.338935b0 phases=1 Bus1=l2973160.2 kv=7.2 model=1 conn=wye kW=5.84 pf=0.97 Vminpu=.88
New Load.225897943c0 phases=1 Bus1=l2875754.3 kv=7.2 model=1 conn=wye kW=20.34 pf=0.97 Vminpu=.88
New Load.207288b0 phases=1 Bus1=l3198355.2 kv=7.2 model=1 conn=wye kW=3.89 pf=0.97 Vminpu=.88
New Load.323236b0 phases=1 Bus1=l2822860.2 kv=7.2 model=1 conn=wye kW=9.73 pf=0.97 Vminpu=.88
New Load.337687b0 phases=1 Bus1=l2973156.2 kv=7.2 model=1 conn=wye kW=5.84 pf=0.97 Vminpu=.88
New Load.337635c0 phases=1 Bus1=l2822863.3 kv=7.2 model=1 conn=wye kW=4.07 pf=0.97 Vminpu=.88
New Load.21386143c0 phases=1 Bus1=l3160862.3 kv=7.2 model=1 conn=wye kW=6.1 pf=0.97 Vminpu=.88
New Load.218475a0 phases=1 Bus1=l3217057.1 kv=7.2 model=1 conn=wye kW=3.55 pf=0.97 Vminpu=.88
New Load.302468a0 phases=1 Bus1=l2897778.1 kv=7.2 model=1 conn=wye kW=3.55 pf=0.97 Vminpu=.88
New Load.338954a0 phases=1 Bus1=l2860482.1 kv=7.2 model=1 conn=wye kW=8.87 pf=0.97 Vminpu=.88
New Load.260475a0 phases=1 Bus1=l2879794.1 kv=7.2 model=1 conn=wye kW=13.3 pf=0.97 Vminpu=.88
New Load.356064b0 phases=1 Bus1=l2935556.2 kv=7.2 model=1 conn=wye kW=9.73 pf=0.97 Vminpu=.88
New Load.2224490448c0 phases=1 Bus1=l3778577.3 kv=7.2 model=1 conn=wye kW=10.17 pf=0.97 Vminpu=.88
New Load.356800a0 phases=1 Bus1=l3235946.1 kv=7.2 model=1 conn=wye kW=8.87 pf=0.97 Vminpu=.88
New Load.337671a0 phases=1 Bus1=l3254207.1 kv=7.2 model=1 conn=wye kW=5.32 pf=0.97 Vminpu=.88